!
! generated by SHIMADA CODE.
! written by Shota Yamanaka. 2013.
!
elements
 H C N O
end
species
 N2 O2 H2 OH O H HO2 H2O
end
thermo all
   300.000  1000.000  5000.000
N2                      N   2               G    200.00   6000.00 1000.00      1
 0.29525407E+01 0.13968838E-02-0.49262577E-06 0.78600091E-10-0.46074978E-14    2
-0.92393753E+03 0.58718221E+01 0.35309628E+01-0.12365950E-03-0.50299339E-06    3
 0.24352768E-08-0.14087954E-11-0.10469637E+04 0.29674391E+01                   4
O2                      O   2               G    200.00   6000.00 1000.00      1
 0.36609608E+01 0.65636552E-03-0.14114949E-06 0.20579766E-10-0.12991325E-14    2
-0.12159772E+04 0.34153618E+01 0.37824564E+01-0.29967341E-02 0.98473020E-05    3
-0.96812951E-08 0.32437284E-11-0.10639436E+04 0.36576757E+01                   4
H2                      H   2               G    200.00   6000.00 1000.00      1
 0.29328305E+01 0.82659802E-03-0.14640057E-06 0.15409851E-10-0.68879615E-15    2
-0.81305582E+03-0.10243164E+01 0.23443029E+01 0.79804248E-02-0.19477917E-04    3
 0.20156967E-07-0.73760289E-11-0.91792413E+03 0.68300218E+00                   4
OH                      H   1O   1          G    200.00   6000.00 1000.00      1
 0.28386461E+01 0.11072559E-02-0.29391498E-06 0.42052425E-10-0.24216909E-14    2
 0.36859969E+04 0.58445266E+01 0.39920154E+01-0.24013175E-02 0.46179384E-05    3
-0.38811333E-08 0.13641147E-11 0.33571189E+04-0.10392546E+00                   4
O                       O   1               G    200.00   6000.00 1000.00      1
 0.25436370E+01-0.27316249E-04-0.41902952E-08 0.49548184E-11-0.47955369E-15    2
 0.29226012E+05 0.49222946E+01 0.31682671E+01-0.32793188E-02 0.66430640E-05    3
-0.61280662E-08 0.21126597E-11 0.29122259E+05 0.20519335E+01                   4
H                       H   1               G    200.00   6000.00 1000.00      1
 0.25000000E+01 0.00000000E+00 0.00000000E+00 0.00000000E+00 0.00000000E+00    2
 0.25473660E+05-0.44668285E+00 0.25000000E+01 0.00000000E+00 0.00000000E+00    3
 0.00000000E+00 0.00000000E+00 0.25473660E+05-0.44668285E+00                   4
HO2                     H   1O   2          G    200.00   6000.00 1000.00      1
 0.41722659E+01 0.18812098E-02-0.34629297E-06 0.19468516E-10 0.17609153E-15    2
 0.21322251E+03 0.29577974E+01 0.43017880E+01-0.47490201E-02 0.21157953E-04    3
-0.24275961E-07 0.92920670E-11 0.44621242E+03 0.37167010E+01                   4
H2O                     H   2O   1          G    200.00   6000.00 1000.00      1
 0.26770389E+01 0.29731816E-02-0.77376889E-06 0.94433514E-10-0.42689991E-14    2
-0.29885894E+05 0.68825500E+01 0.41986352E+01-0.20364017E-02 0.65203416E-05    3
-0.54879269E-08 0.17719680E-11-0.30293726E+05-0.84900901E+00                   4
end
reactions      cal/mole  moles
 H+HO2=H2+O2                   4.280E+013   0.000    1410.1
 O2+H+M=HO2+M                  6.300E+018  -0.800       0.0
                                   N2/0.223/ O2/0.133/ H2O/0/
 H+H+M=H2+M                    5.610E+018  -1.000       0.0
                          N2/0.133/ O2/0.133/ H2/0/ H2O/2.17/
 O2+H=OH+O                     9.756E+013   0.000   14844.6
 H+O+M=OH+M                    3.540E+019  -1.000       0.0
                                N2/0.133/ O2/0.133/ H2O/2.17/
 H+HO2=OH+OH                   1.690E+014   0.000     874.8
 H2+O=OH+H                     5.120E+004   2.670    6278.7
 H+OH+M=H2O+M                  1.659E+023  -2.000       0.0
                                N2/0.133/ O2/0.133/ H2O/0.85/
 H2O+H=H2+OH                   4.520E+008   1.600   18422.6
end
