elements
 N H C O
end
species
 H2O CO2 CH4 N2 O2
end
thermo
end
reactions cal/mole  moles
end
