!
! generated by KUCRS rev. 2011.01.07m6 (c) 2002-2012 by A. Miyoshi
!  on Jan 15, 2013.
!
elements
 H C N O
end
species
 CO2
 O2
end
thermo all
   300.000  1000.000  5000.000
He                120186HE  1               G  0300.00   5000.00  1000.00      1
 0.02500000E+02 0.00000000E+00 0.00000000E+00 0.00000000E+00 0.00000000E+00    2
-0.07453750E+04 0.09153489E+01 0.02500000E+02 0.00000000E+00 0.00000000E+00    3
 0.00000000E+00 0.00000000E+00-0.07453750E+04 0.09153488E+01                   4
Ar                      AR  1               G    200.00   6000.00 1000.00      1
 2.50000000E+00 0.00000000E+00 0.00000000E+00 0.00000000E+00 0.00000000E+00    2
-7.45375000E+02 4.37967490E+00 2.50000000E+00 0.00000000E+00 0.00000000E+00    3
 0.00000000E+00 0.00000000E+00-7.45375000E+02 4.37967490E+00                   4
H                       H   1               G    200.00   6000.00 1000.00      1
 2.50000000E+00 0.00000000E+00 0.00000000E+00 0.00000000E+00 0.00000000E+00    2
 2.54736600E+04-4.46682850E-01 2.50000000E+00 0.00000000E+00 0.00000000E+00    3
 0.00000000E+00 0.00000000E+00 2.54736600E+04-4.46682850E-01                   4
H2                      H   2               G    200.00   6000.00 1000.00      1
 2.93283050E+00 8.26598020E-04-1.46400570E-07 1.54098510E-11-6.88796150E-16    2
-8.13055820E+02-1.02431640E+00 2.34430290E+00 7.98042480E-03-1.94779170E-05    3
 2.01569670E-08-7.37602890E-12-9.17924130E+02 6.83002180E-01                   4
O                       O   1               G    200.00   6000.00 1000.00      1
 2.54363697E+00-2.73162486E-05-4.19029520E-09 4.95481845E-12-4.79553694E-16    2
 2.92260120E+04 4.92229457E+00 3.16826710E+00-3.27931884E-03 6.64306396E-06    3
-6.12806624E-09 2.11265971E-12 2.91222592E+04 2.05193346E+00                   4
OH                      H   1O   1          G    200.00   6000.00 1000.00      1
 2.83864607E+00 1.10725586E-03-2.93914978E-07 4.20524247E-11-2.42169092E-15    2
 3.68599690E+03 5.84452662E+00 3.99201543E+00-2.40131752E-03 4.61793841E-06    3
-3.88113333E-09 1.36411470E-12 3.35711894E+03-1.03925458E-01                   4
H2O                     H   2O   1          G    200.00   6000.00 1000.00      1
 2.67703890E+00 2.97318160E-03-7.73768890E-07 9.44335140E-11-4.26899910E-15    2
-2.98858940E+04 6.88255000E+00 4.19863520E+00-2.03640170E-03 6.52034160E-06    3
-5.48792690E-09 1.77196800E-12-3.02937260E+04-8.49009010E-01                   4
O2                      O   2               G    200.00   6000.00 1000.00      1
 3.66096083E+00 6.56365523E-04-1.41149485E-07 2.05797658E-11-1.29913248E-15    2
-1.21597725E+03 3.41536184E+00 3.78245636E+00-2.99673415E-03 9.84730200E-06    3
-9.68129508E-09 3.24372836E-12-1.06394356E+03 3.65767573E+00                   4
HO2                     H   1O   2          G    200.00   6000.00 1000.00      1
 4.17226590E+00 1.88120980E-03-3.46292970E-07 1.94685160E-11 1.76091530E-16    2
 2.13222508E+02 2.95779740E+00 4.30178800E+00-4.74902010E-03 2.11579530E-05    3
-2.42759610E-08 9.29206700E-12 4.46212417E+02 3.71670100E+00                   4
H2O2                    H   2O   2          G    200.00   6000.00 1000.00      1
 4.57333537E+00 4.04984070E-03-1.29479479E-06 1.97281710E-10-1.13402846E-14    2
-1.80040975E+04 7.04278488E-01 4.27611269E+00-5.42822417E-04 1.67335701E-05    3
-2.15770813E-08 8.62454363E-12-1.77035843E+04 3.43505074E+00                   4
N2                      N   2               G    200.00   6000.00 1000.00      1
 2.95254070E+00 1.39688380E-03-4.92625770E-07 7.86000910E-11-4.60749780E-15    2
-9.23937530E+02 5.87182210E+00 3.53096280E+00-1.23659500E-04-5.02993390E-07    3
 2.43527680E-09-1.40879540E-12-1.04696370E+03 2.96743910E+00                   4
CH                      H   1C   1          G    200.00   6000.00 1000.00      1
 2.52090620E+00 1.76537260E-03-4.61475810E-07 5.92885670E-11-3.34732090E-15    2
 7.10230206E+04 7.40532230E+00 3.48981660E+00 3.23835540E-04-1.68899060E-06    3
 3.16217330E-09-1.40609070E-12 7.06888776E+04 2.08401110E+00                   4
CH2                     H   2C   1          G    200.00   6000.00 1000.00      1
 2.53871220E+00 3.82254910E-03-1.28613040E-06 1.98003080E-10-1.14657430E-14    2
 4.61292530E+04 8.10546480E+00 4.17936550E+00-2.21785530E-03 7.96536020E-06    3
-6.91273390E-09 2.24753180E-12 4.57508570E+04-7.61137030E-03                   4
CH2(S)                  H   2C   1          G    300.00   4000.00 1000.00      1
 3.55288800E+00 2.06678800E-03-1.91411600E-07-1.10467330E-10 2.02134900E-14    2
 5.02544011E+04 1.68657000E+00 3.97126500E+00-1.69908800E-04 1.02536890E-06    3
 2.49255000E-09-1.98126600E-12 5.02983211E+04 5.75320700E-02                   4
CH3                     H   3C   1          G    200.00   6000.00 1000.00      1
 2.96697350E+00 5.79366720E-03-1.96948090E-06 3.05569360E-10-1.77678430E-14    2
 1.65131329E+04 4.79188030E+00 3.67333750E+00 2.00205590E-03 5.78531350E-06    3
-6.98730540E-09 2.60555990E-12 1.64161969E+04 1.60183150E+00                   4
CH4                     H   4C   1          G    200.00   6000.00 1000.00      1
 1.63542560E+00 1.00844310E-02-3.36923690E-06 5.34972800E-10-3.15528170E-14    2
-1.00056030E+04 9.99369530E+00 5.14987920E+00-1.36710080E-02 4.91801300E-05    3
-4.84744030E-08 1.66694410E-11-1.02466480E+04-4.64132440E+00                   4
CO                      O   1C   1          G    200.00   6000.00 1000.00      1
 3.04848590E+00 1.35172810E-03-4.85794050E-07 7.88536440E-11-4.69807460E-15    2
-1.42661170E+04 6.01709770E+00 3.57953350E+00-6.10353690E-04 1.01681430E-06    3
 9.07005860E-10-9.04424490E-13-1.43440860E+04 3.50840930E+00                   4
HCO                     H   1O   1C   1     G    200.00   6000.00 1000.00      1
 3.64896209E+00 3.08090819E-03-1.12429876E-06 1.86308085E-10-1.13951828E-14    2
 3.71209048E+03 5.06147406E+00 4.22118584E+00-3.24392532E-03 1.37799446E-05    3
-1.33144093E-08 4.33768865E-12 3.83956496E+03 3.39437243E+00                   4
CH2O                    H   2O   1C   1     G    200.00   6000.00 1000.00      1
 3.16948070E+00 6.19327420E-03-2.25059810E-06 3.65982450E-10-2.20154100E-14    2
-1.44784250E+04 6.04235330E+00 4.79370360E+00-9.90815180E-03 3.73214590E-05    3
-3.79279020E-08 1.31770150E-11-1.43089550E+04 6.02887020E-01                   4
CH2OH                   H   3O   1C   1     G    200.00   6000.00 1000.00      1
 4.72398695E+00 6.50832540E-03-2.24240605E-06 3.51742805E-10-2.06424726E-14    2
-3.81156740E+03 1.47350104E+00 4.73864580E+00 1.27132491E-03 1.46005656E-05    3
-1.83666166E-08 7.07708694E-12-3.56200591E+03 2.65277676E+00                   4
CH3O                    H   3O   1C   1     G    200.00   6000.00 1000.00      1
 4.26533080E+00 7.85764060E-03-2.84104380E-06 4.60451900E-10-2.76319060E-14    2
 1.65605687E+02 3.93099470E-01 3.26523370E+00 3.30316650E-03 1.70488010E-05    3
-2.27096300E-08 8.80717680E-12 8.38550421E+02 7.42573570E+00                   4
CH3OH             121686C   1H   4O   1     G  0300.00   5000.00  1000.00      1
 0.04029061E+02 0.09376593E-01-0.03050254E-04 0.04358793E-08-0.02224723E-12    2
-0.02615791E+06 0.02378196E+02 0.02660115E+02 0.07341508E-01 0.07170051E-04    3
-0.08793194E-07 0.02390570E-10-0.02535348E+06 0.01123263E+03                   4
CO2                     O   2C   1          G    200.00   6000.00 1000.00      1
 4.63651110E+00 2.74145690E-03-9.95897590E-07 1.60386660E-10-9.16198570E-15    2
-4.90249040E+04-1.93489550E+00 2.35681300E+00 8.98412990E-03-7.12206320E-06    3
 2.45730080E-09-1.42885480E-13-4.83719710E+04 9.90090350E+00                   4
HOCO              AM1201C   1H   1O   2     G   300.000  5000.000  998.00      1
 5.53770036E-01 9.89824271E-03-4.36441653E-06 7.74467859E-10-4.66252260E-14    2
-2.67288337E+04 2.63940845E+01 2.95025006E+00 8.83439507E-03-8.20680849E-06    3
 4.15935396E-09-9.26055157E-13-2.79829325E+04 1.19163883E+01                   4
HOCHO      4/ 9/98 THERMC   1H   2O   2     G   300.000  5000.000 1376.00      1
 6.68733013E+00 5.14289368E-03-1.82238513E-06 2.89719163E-10-1.70892199E-14    2
-4.83995400E+04-1.13104798E+01 1.43548185E+00 1.63363016E-02-1.06257421E-05    3
 3.32132977E-09-4.02176103E-13-4.64616504E+04 1.72885798E+01                   4
CH3OO      7/13/98 THERMC   1H   3O   2     G   300.000  5000.000 1385.00      1
 5.95787891E+00 7.90728626E-03-2.68246234E-06 4.13891337E-10-2.39007330E-14    2
-1.53574838E+03-4.71963886E+00 4.26146906E+00 1.00873599E-02-3.21506184E-06    3
 2.09409267E-10 4.18339103E-14-6.84394259E+02 5.16330320E+00                   4
CH3OOH     7/13/98 THERMC   1H   4O   2     G   300.000  5000.000 1390.00      1
 8.43117091E+00 8.06817909E-03-2.77094921E-06 4.31332243E-10-2.50692146E-14    2
-1.96678771E+04-1.91170629E+01 3.23442817E+00 1.90129767E-02-1.13386287E-05    3
 3.40306653E-09-4.11830222E-13-1.77197926E+04 9.25623949E+00                   4
C2H                     H   1C   2          G    200.00   6000.00 1000.00      1
 3.66459586E+00 3.82189487E-03-1.36509398E-06 2.13253692E-10-1.23098939E-14    2
 6.69367375E+04 3.91355399E+00 2.90180321E+00 1.32859725E-02-2.80508233E-05    3
 2.89300812E-08-1.07446930E-11 6.68300042E+04 6.17234595E+00                   4
C2H2                    H   2C   2          G    200.00   6000.00 1000.00      1
 4.65870470E+00 4.88409490E-03-1.60835630E-06 2.46987870E-10-1.38615050E-14    2
 2.56632180E+04-3.99790740E+00 8.08691080E-01 2.33613950E-02-3.55166360E-05    3
 2.80145660E-08-8.50044590E-12 2.63327640E+04 1.39396710E+01                   4
C2H3                    H   3C   2          G    200.00   6000.00 1000.00      1
 4.70253100E+00 7.26422830E-03-2.58019920E-06 4.13199440E-10-2.45914920E-14    2
 3.40296750E+04-1.42937140E+00 3.00196020E+00 3.03043540E-03 2.44443150E-05    3
-3.58102420E-08 1.51087000E-11 3.48681730E+04 9.33044950E+00                   4
C2H4                    H   4C   2          G    300.00   5000.00 1000.00      1
 4.39854530E+00 9.62286070E-03-3.16637760E-06 4.57476280E-10-2.36594060E-14    2
 4.11532030E+03-2.46274380E+00 1.21766000E+00 1.30026750E-02 3.50374470E-06    3
-1.11555140E-08 4.72032220E-12 5.33738280E+03 1.54801690E+01                   4
C2H5                    H   5C   2          G    200.00   6000.00 1000.00      1
 4.28788140E+00 1.24338930E-02-4.41391190E-06 7.06541020E-10-4.20351360E-14    2
 1.23269670E+04 8.46025830E-01 4.30585800E+00-4.18336380E-03 4.97072700E-05    3
-5.99058740E-08 2.30484780E-11 1.31122260E+04 4.71002360E+00                   4
C2H6                    H   6C   2          G    300.00   5000.00 1000.00      1
 4.70288470E+00 1.40426350E-02-4.64693770E-06 6.74737380E-10-3.50893120E-14    2
-1.26719880E+04-4.54339500E+00 1.53952600E+00 1.50408410E-02 6.68471150E-06    3
-1.33829480E-08 4.85613980E-12-1.12487660E+04 1.41073750E+01                   4
HCCO                    H   1O   1C   2     G    200.00   6000.00 1000.00      1
 5.84690060E+00 3.64059600E-03-1.29590070E-06 2.07969190E-10-1.24000220E-14    2
 1.92484960E+04-5.29165330E+00 2.33501180E+00 1.70100830E-02-2.20188670E-05    3
 1.54064470E-08-4.34550970E-12 2.00502990E+04 1.19767290E+01                   4
CH2CO                   H   2O   1C   2     G    200.00   6000.00 1000.00      1
 5.75779010E+00 6.34965070E-03-2.25844070E-06 3.62084620E-10-2.15690300E-14    2
-8.20537635E+03-6.10640370E+00 2.14011650E+00 1.80883680E-02-1.73242160E-05    3
 9.27674770E-09-1.99150110E-12-7.26981595E+03 1.21986990E+01                   4
CH3CO             120186C   2H   3O   1     G  0300.00   5000.00  1000.00      1
 0.05612279E+02 0.08449886E-01-0.02854147E-04 0.04238376E-08-0.02268404E-12    2
-0.05187863E+05-0.03274949E+02 0.03125278E+02 0.09778220E-01 0.04521448E-04    3
-0.09009462E-07 0.03193718E-10-0.04108508E+05 0.01122885E+03                   4
CH2CHO                  H   3O   1C   2     G    300.00   5000.00 1000.00      1
 5.97566990E+00 8.13059140E-03-2.74362450E-06 4.07030410E-10-2.17601710E-14    2
-1.26585075E+03-5.03208790E+00 3.40906240E+00 1.07385740E-02 1.89149250E-06    3
-7.15858310E-09 2.86738510E-12-2.34695926E+02 9.57145350E+00                   4
C2H4cyO    9/ 1/ 0 THERMC   2H   4O   1     G   300.000  5000.000 1399.00      1
 6.99485763E+00 1.00772459E-02-3.45220932E-06 5.36571216E-10-3.11563543E-14    2
-1.04091344E+04-1.59857976E+01-1.44361790E+00 2.91837107E-02-1.96805054E-05    3
 6.67472575E-09-9.02139342E-13-7.43433507E+03 2.95212453E+01                   4
CH3CHO            120186C   2O   1H   4     G  0300.00   5000.00  1000.00      1
 0.05868650E+02 0.01079424E+00-0.03645530E-04 0.05412912E-08-0.02896844E-12    2
-0.02264569E+06-0.06012946E+02 0.02505695E+02 0.01336991E+00 0.04671953E-04    3
-0.01128140E-06 0.04263566E-10-0.02124589E+06 0.01335089E+03                   4
C2H5O      3/12/95 THERMC   2H   5O   1     G   300.000  5000.000 1389.00      1
 7.87339772E+00 1.13072907E-02-3.84421421E-06 5.94414105E-10-3.43894538E-14    2
-6.07274953E+03-1.73416790E+01 4.94420708E-01 2.71774434E-02-1.65909010E-05    3
 5.15204200E-09-6.48496915E-13-3.35252925E+03 2.28079378E+01                   4
pC2H4OH    3/12/95 THERMC   2H   5O   1     G  0300.00   5000.00  1391.00      1
 7.52241939E+00 1.10492715E-02-3.72576465E-06 5.72827397E-10-3.30061759E-14    2
-7.29333590E+03-1.24958732E+01 1.17714711E+00 2.48115685E-02-1.50299503E-05    3
 4.79006785E-09-6.40994211E-13-4.95369043E+03 2.20081586E+01                   4
sC2H4OH    3/12/95 THERMC   2H   5O   1     G  0300.00   5000.00  1553.00      1
 7.26631179E+00 1.09588926E-02-3.63662803E-06 5.53659830E-10-3.17012322E-14    2
-8.64310684E+03-1.06794104E+01 1.83974631E+00 1.87789371E-02-4.60544253E-06    3
-2.13116990E-09 9.43772653E-13-6.29595195E+03 2.01446141E+01                   4
C2H5OH     3/12/95 THERMC   2H   6O   1     G   300.000  5000.000 1391.00      1
 7.95264841E+00 1.31574144E-02-4.43693359E-06 6.82201160E-10-3.93096335E-14    2
-3.23602958E+04-1.76537972E+01 4.23149045E-01 2.92858167E-02-1.73845099E-05    3
 5.33639892E-09-6.74917252E-13-2.95683054E+04 2.33538763E+01                   4
CH3CO2     2/14/95 THERMC   2H   3O   2     G   300.000  5000.000 1395.00      1
 8.54059736E+00 8.32951214E-03-2.84722010E-06 4.41927196E-10-2.56373394E-14    2
-2.97290678E+04-2.03883545E+01 1.37440768E+00 2.49115604E-02-1.74308894E-05    3
 6.24799508E-09-9.09516835E-13-2.72330150E+04 1.81405454E+01                   4
C2H4OOH    7/19/ 0 THERMC   2H   5O   2     G   300.000  5000.000 1416.00      1
 1.04141161E+01 1.03535418E-02-3.40802617E-06 5.15328200E-10-2.93443242E-14    2
 9.20494999E+02-2.27319861E+01 3.54721135E+00 2.68422848E-02-1.84606216E-05    3
 6.70875659E-09-9.95440617E-13 3.23432979E+03 1.39436666E+01                   4
C2H5OO     7/19/ 0 THERMC   2H   5O   2     G   300.000  5000.000 1382.00      1
 9.48696023E+00 1.24472545E-02-4.32161576E-06 6.77583033E-10-3.95784568E-14    2
-7.82481795E+03-2.30613020E+01 2.26846188E+00 2.76942578E-02-1.70804106E-05    3
 5.87951878E-09-9.20899069E-13-5.03880758E+03 1.64773972E+01                   4
C2H5OOH    7/19/ 0 THERMC   2H   6O   2     G   300.000  5000.000 1383.00      1
 1.19442992E+01 1.26271597E-02-4.41776755E-06 6.96327353E-10-4.08268961E-14    2
-2.57408634E+04-3.73382394E+01 1.29970294E+00 3.65488420E-02-2.52808875E-05    3
 9.19746803E-09-1.41362233E-12-2.18866647E+04 2.02719078E+01                   4
CH3C(O)OO  6/26/95 THERMC   2H   3O   3     G   300.000  5000.000 1396.00      1
 1.15641474E+01 8.02672958E-03-2.77497463E-06 4.34069277E-10-2.53202435E-14    2
-1.93142188E+04-3.13182392E+01 2.61619505E+00 2.94830898E-02-2.23952554E-05    3
 8.56474251E-09-1.31255496E-12-1.62923875E+04 1.64911398E+01                   4
CH3C(O)OOH 6/26/95 THERMC   2H   4O   3     G   300.000  5000.000 1391.00      1
 1.25060485E+01 9.47789695E-03-3.30402246E-06 5.19630793E-10-3.04233568E-14    2
-4.59856703E+04-3.79195947E+01 2.24135876E+00 3.37963514E-02-2.53887482E-05    3
 9.67583587E-09-1.49266157E-12-4.24677831E+04 1.70668133E+01                   4
O2C2H4OH   2/14/95 THERMC   2H   5O   3     G   300.000  5000.000 1392.00      1
 1.07432659E+01 1.30957787E-02-4.45370088E-06 6.88548738E-10-3.98230113E-14    2
-2.55911274E+04-2.33254953E+01 4.11839445E+00 2.72240632E-02-1.60824430E-05    3
 5.17033408E-09-7.31610168E-13-2.30857785E+04 1.28482112E+01                   4
end
reactions      cal/mole  moles
! Reaction data generated by combust (Jan 15, 2013)
end
